$DATA1 SOURCE='HSPICE' VERSION='K-2015.06-3 linux64' PARAM_COUNT=0
.TITLE '*library file'
 outrise          outfall          tphl             tplh            
 temper           alter#          
    failed           failed           failed           failed       
   25.0000        1               
