$DATA1 SOURCE='HSPICE' VERSION='K-2015.06-3 linux64' PARAM_COUNT=0
.TITLE '*library file'
 outrise          outfall          tphl             tplh            
 temper           alter#          
  8.760e-11        2.459e-10        1.774e-08       -1.774e-08      
   25.0000        1               
