$DATA1 SOURCE='HSPICE' VERSION='K-2015.06-3 linux64' PARAM_COUNT=0
.TITLE '*library file'
 outrise          outfall          tphl             tplh            
 temper           alter#          
  3.345e-09        2.496e-09        4.971e-06       -4.971e-06      
   25.0000        1               
