$DATA1 SOURCE='HSPICE' VERSION='K-2015.06-3 linux64' PARAM_COUNT=0
.TITLE '*library file'
 outrise          outfall          tphl             tplh            
 temper           alter#          
  8.956e-08        8.061e-08       -2.211e-10        3.063e-09      
   25.0000        1               
