$DATA1 SOURCE='HSPICE' VERSION='K-2015.06-3 linux64' PARAM_COUNT=0
.TITLE '*library file'
 outrise          outfall          tphl             tplh            
 temper           alter#          
  6.932e-08        4.644e-08        4.950e-06        4.869e-06      
   25.0000        1               
